Version 4.1
SHEET 1 1112 680
WIRE 496 -112 -176 -112
WIRE -176 -16 -176 -112
WIRE 128 -16 -176 -16
WIRE 928 -16 416 -16
WIRE -176 48 -176 -16
WIRE 128 48 -176 48
WIRE 496 48 496 -112
WIRE 496 48 416 48
WIRE 640 48 496 48
WIRE 928 48 928 -16
WIRE 928 48 720 48
WIRE -176 112 -176 48
WIRE 128 112 -176 112
WIRE 496 112 496 48
WIRE 496 112 416 112
WIRE -176 176 -176 112
WIRE 128 176 -176 176
WIRE 720 176 416 176
WIRE 816 176 800 176
WIRE 816 224 816 176
WIRE -80 240 -176 240
WIRE 128 240 0 240
WIRE 640 240 416 240
WIRE 752 240 720 240
WIRE 752 288 752 240
WIRE 128 304 64 304
WIRE 560 304 416 304
WIRE 672 304 640 304
WIRE 672 336 672 304
WIRE 64 368 64 304
WIRE 128 368 64 368
WIRE 480 368 416 368
WIRE 592 368 560 368
WIRE 592 400 592 368
WIRE 64 432 64 368
WIRE 128 432 64 432
WIRE 464 432 416 432
WIRE -176 576 -176 240
WIRE 64 576 64 432
WIRE 64 576 -176 576
WIRE 272 576 64 576
WIRE 464 576 464 432
WIRE 464 576 272 576
WIRE 592 576 592 464
WIRE 592 576 464 576
WIRE 672 576 672 400
WIRE 672 576 592 576
WIRE 752 576 752 352
WIRE 752 576 672 576
WIRE 816 576 816 288
WIRE 816 576 752 576
WIRE 928 576 928 48
WIRE 928 576 816 576
WIRE 272 624 272 576
FLAG 272 624 0
SYMBOL Misc\\DIP16 272 80 R0
SYMATTR InstName U1
SYMATTR SpiceModel 74HC161
SYMBOL res 576 352 R90
WINDOW 0 0 56 VBottom 2
WINDOW 3 32 56 VTop 2
SYMATTR InstName R1
SYMATTR Value 10k
SYMBOL res 656 288 R90
WINDOW 0 0 56 VBottom 2
WINDOW 3 32 56 VTop 2
SYMATTR InstName R2
SYMATTR Value 10k
SYMBOL res 736 224 R90
WINDOW 0 0 56 VBottom 2
WINDOW 3 32 56 VTop 2
SYMATTR InstName R3
SYMATTR Value 10k
SYMBOL res 816 160 R90
WINDOW 0 0 56 VBottom 2
WINDOW 3 32 56 VTop 2
SYMATTR InstName R4
SYMATTR Value 10k
SYMBOL diode 576 400 R0
SYMATTR InstName D1
SYMBOL diode 656 336 R0
SYMATTR InstName D2
SYMBOL diode 736 288 R0
SYMATTR InstName D3
SYMBOL diode 800 224 R0
SYMATTR InstName D4
SYMBOL voltage 16 240 R90
WINDOW 123 0 0 Left 0
WINDOW 39 0 0 Left 0
SYMATTR InstName V1
SYMATTR Value PULSE(0 5 0 1n 1n 1u 10u)
SYMBOL voltage 624 48 R270
WINDOW 0 32 56 VTop 2
WINDOW 3 -32 56 VBottom 2
WINDOW 123 0 0 Left 0
WINDOW 39 0 0 Left 0
SYMATTR InstName V2
SYMATTR Value 5
TEXT -304 -192 Left 2 !.include 74hc.lib
TEXT -304 648 Left 2 !.tran 0 1m 0 100n
TEXT -288 -152 Left 2 !.param vcc=5 speed=1 tripdt=0
